Version 4.1
SHEET 1 880 680
WIRE 80 80 32 80
WIRE 192 80 144 80
WIRE 32 128 32 80
WIRE 192 128 192 80
WIRE 32 272 32 208
WIRE 192 272 192 208
WIRE 192 272 32 272
FLAG 192 272 0
SYMBOL voltage 32 112 R0
WINDOW 123 0 0 Left 0
WINDOW 39 0 0 Left 0
SYMATTR InstName V1
SYMATTR Value SINE(0 10 100)
SYMBOL diode 144 64 R90
WINDOW 0 0 32 VBottom 2
WINDOW 3 32 32 VTop 2
SYMATTR InstName D1
SYMATTR Value 1N4148
SYMBOL res 176 112 R0
SYMATTR InstName R1
SYMATTR Value 1k
TEXT 112 368 Left 2 !.tran 0.05
