Version 4.1
SHEET 1 880 680
WIRE 112 32 64 32
WIRE 208 32 176 32
WIRE 64 112 64 32
WIRE 208 112 208 32
WIRE 64 240 64 192
WIRE 208 240 208 192
WIRE 208 240 64 240
FLAG 208 240 0
FLAG 256 48 0
SYMBOL voltage 64 96 R0
WINDOW 123 0 0 Left 0
WINDOW 39 0 0 Left 0
SYMATTR InstName V1
SYMATTR Value SINE(0 10 100)
SYMBOL res 192 96 R0
SYMATTR InstName R1
SYMATTR Value 1k
SYMBOL diode 112 48 R270
WINDOW 0 32 32 VTop 2
WINDOW 3 0 32 VBottom 2
SYMATTR InstName D1
SYMATTR Value 1N4148
TEXT 304 280 Left 2 !.tran 0.05
