Version 4.1
SHEET 1 880 680
WIRE 16 32 -16 32
WIRE 128 32 96 32
WIRE 288 32 240 32
WIRE 384 32 368 32
WIRE 128 64 128 32
WIRE 384 64 384 32
WIRE -16 80 -16 32
WIRE 240 80 240 32
WIRE 128 144 128 128
WIRE 384 144 384 128
WIRE -16 256 -16 160
WIRE 96 256 -16 256
WIRE 128 256 128 224
WIRE 128 256 96 256
WIRE 240 256 240 160
WIRE 352 256 240 256
WIRE 384 256 384 224
WIRE 384 256 352 256
FLAG 96 256 0
FLAG 352 256 0
SYMBOL voltage -16 64 R0
WINDOW 123 0 0 Left 0
WINDOW 39 0 0 Left 0
SYMATTR InstName V1
SYMATTR Value SINE(10 1000)
SYMBOL voltage 240 64 R0
WINDOW 123 0 0 Left 0
WINDOW 39 0 0 Left 0
SYMATTR InstName V2
SYMATTR Value SINE(0 10 1000)
SYMBOL voltage 128 128 R0
WINDOW 123 0 0 Left 0
WINDOW 39 0 0 Left 0
SYMATTR InstName V3
SYMATTR Value 5
SYMBOL voltage 384 128 R0
WINDOW 123 0 0 Left 0
WINDOW 39 0 0 Left 0
SYMATTR InstName V4
SYMATTR Value 5
SYMBOL res 384 16 R90
WINDOW 0 0 56 VBottom 2
WINDOW 3 32 56 VTop 2
SYMATTR InstName R2
SYMATTR Value 10k
SYMBOL diode 112 64 R0
SYMATTR InstName D1
SYMATTR Value 1N4148
SYMBOL diode 400 128 R180
WINDOW 0 24 64 Left 2
WINDOW 3 24 0 Left 2
SYMATTR InstName D2
SYMATTR Value 1N4148
SYMBOL res 112 16 R90
WINDOW 0 0 56 VBottom 2
WINDOW 3 32 56 VTop 2
SYMATTR InstName R1
SYMATTR Value 10k
TEXT 184 280 Left 2 !.tran 0.01
