Version 4.1
SHEET 1 880 680
SYMBOL voltage -96 80 R0
SYMATTR InstName V1
SYMBOL voltage 48 144 R0
SYMATTR InstName V2
SYMBOL voltage 176 144 R0
SYMATTR InstName V3
SYMBOL voltage 272 64 R0
SYMATTR InstName V4
SYMBOL voltage 368 128 R0
SYMATTR InstName V5
SYMBOL voltage 480 128 R0
SYMATTR InstName V6
