Version 4.1
SHEET 1 880 680
WIRE 352 16 304 16
WIRE 464 16 416 16
WIRE 48 32 0 32
WIRE 160 32 112 32
WIRE 464 32 464 16
WIRE 160 48 160 32
WIRE 0 80 0 32
WIRE 304 80 304 16
WIRE 160 176 160 128
WIRE 464 176 464 112
WIRE 0 272 0 160
WIRE 128 272 0 272
WIRE 160 272 160 256
WIRE 160 272 128 272
WIRE 304 272 304 160
WIRE 416 272 304 272
WIRE 464 272 464 256
WIRE 464 272 416 272
FLAG 128 272 0
FLAG 416 272 0
SYMBOL voltage 0 64 R0
WINDOW 123 0 0 Left 0
WINDOW 39 0 0 Left 0
SYMATTR InstName V1
SYMATTR Value SINE(0 10 100)
SYMBOL voltage 304 64 R0
WINDOW 123 0 0 Left 0
WINDOW 39 0 0 Left 0
SYMATTR InstName V2
SYMATTR Value SINE(0 10 100)
SYMBOL res 144 32 R0
SYMATTR InstName R1
SYMATTR Value 10k
SYMBOL res 448 16 R0
SYMATTR InstName R2
SYMATTR Value 10k
SYMBOL diode 112 16 R90
WINDOW 0 0 32 VBottom 2
WINDOW 3 32 32 VTop 2
SYMATTR InstName D1
SYMATTR Value 1N4148
SYMBOL diode 352 32 R270
WINDOW 0 32 32 VTop 2
WINDOW 3 0 32 VBottom 2
SYMATTR InstName D2
SYMATTR Value 1N4148
SYMBOL voltage 160 272 R180
WINDOW 0 24 96 Left 2
WINDOW 3 24 16 Left 2
WINDOW 123 0 0 Left 0
WINDOW 39 0 0 Left 0
SYMATTR InstName V3
SYMATTR Value 4
SYMBOL voltage 464 272 R180
WINDOW 0 24 96 Left 2
WINDOW 3 24 16 Left 2
WINDOW 123 0 0 Left 0
WINDOW 39 0 0 Left 0
SYMATTR InstName V4
SYMATTR Value 4
TEXT 152 304 Left 2 !.tran 0.01
