Version 4.1
SHEET 1 880 680
WIRE 96 32 48 32
WIRE 208 32 176 32
WIRE 400 32 320 32
WIRE 528 32 480 32
WIRE 48 64 48 32
WIRE 208 64 208 32
WIRE 320 64 320 32
WIRE 528 80 528 32
WIRE 208 176 208 128
WIRE 528 176 528 144
WIRE 48 272 48 144
WIRE 192 272 48 272
WIRE 208 272 208 256
WIRE 208 272 192 272
WIRE 320 272 320 144
WIRE 432 272 320 272
WIRE 528 272 528 256
WIRE 528 272 432 272
FLAG 192 272 0
FLAG 432 272 0
SYMBOL voltage 48 48 R0
WINDOW 123 0 0 Left 0
WINDOW 39 0 0 Left 0
SYMATTR InstName V1
SYMATTR Value SINE(0 10 100)
SYMBOL voltage 320 48 R0
WINDOW 123 0 0 Left 0
WINDOW 39 0 0 Left 0
SYMATTR InstName V2
SYMATTR Value SINE(0 10 100)
SYMBOL res 192 16 R90
WINDOW 0 0 56 VBottom 2
WINDOW 3 32 56 VTop 2
SYMATTR InstName R1
SYMATTR Value 10k
SYMBOL res 496 16 R90
WINDOW 0 0 56 VBottom 2
WINDOW 3 32 56 VTop 2
SYMATTR InstName R2
SYMATTR Value 10k
SYMBOL diode 192 64 R0
SYMATTR InstName D1
SYMATTR Value 1N4148
SYMBOL diode 544 144 R180
WINDOW 0 24 64 Left 2
WINDOW 3 24 0 Left 2
SYMATTR InstName D2
SYMATTR Value 1N4148
SYMBOL voltage 208 272 R180
WINDOW 0 24 96 Left 2
WINDOW 3 24 16 Left 2
WINDOW 123 0 0 Left 0
WINDOW 39 0 0 Left 0
SYMATTR InstName V3
SYMATTR Value 5
SYMBOL voltage 528 272 R180
WINDOW 0 24 96 Left 2
WINDOW 3 24 16 Left 2
WINDOW 123 0 0 Left 0
WINDOW 39 0 0 Left 0
SYMATTR InstName V4
SYMATTR Value 5
TEXT 240 288 Left 2 !.tran 0.01
