Version 4.1
SHEET 1 880 680
WIRE 400 32 352 32
WIRE 512 32 464 32
WIRE 112 48 48 48
WIRE 224 48 176 48
WIRE 512 80 512 32
WIRE 48 96 48 48
WIRE 224 96 224 48
WIRE 352 96 352 32
WIRE 48 208 48 176
WIRE 176 208 48 208
WIRE 224 208 224 176
WIRE 224 208 176 208
WIRE 352 240 352 176
WIRE 464 240 352 240
WIRE 512 240 512 160
WIRE 512 240 464 240
FLAG 176 208 0
FLAG 464 240 0
SYMBOL voltage 48 80 R0
WINDOW 123 0 0 Left 0
WINDOW 39 0 0 Left 0
SYMATTR InstName V1
SYMATTR Value SINE(0 10 100)
SYMBOL res 208 80 R0
SYMATTR InstName R1
SYMATTR Value 10k
SYMBOL diode 176 32 R90
WINDOW 0 0 32 VBottom 2
WINDOW 3 32 32 VTop 2
SYMATTR InstName D1
SYMATTR Value 1N4148
SYMBOL diode 400 48 R270
WINDOW 0 32 32 VTop 2
WINDOW 3 0 32 VBottom 2
SYMATTR InstName D2
SYMATTR Value 1N4148
SYMBOL res 496 64 R0
SYMATTR InstName R2
SYMATTR Value 10k
SYMBOL voltage 352 80 R0
WINDOW 123 0 0 Left 0
WINDOW 39 0 0 Left 0
SYMATTR InstName V2
SYMATTR Value SINE(0 10 100)
TEXT 120 280 Left 2 !.tran 0.01
